// -*- C++ -*-
// File generated by PyFoam - sorry for the ugliness

FoamFile
{
 version 2.0;
 format ascii;
 class volScalarField;
 object p;
}

dimensions [ 0 2 -2 0 0 0 0 ];

internalField uniform 0;

boundaryField
{
  boundary_0
  {
    type zeroGradient;
  }
  boundary_1
  {
    type fixedValue;
    value uniform 0 ;
  }
  boundary_2
  {
    type fixedValue;
    value uniform 0 ;
  }
  boundary_3
  {
    type fixedValue;
    value uniform 0 ;
  }
  boundary_4
  {
    type fixedValue;
    value uniform 0 ;
  }
  boundary_5
  {
    type fixedValue;
    value uniform 0 ;
  }
  vessel
  {
    type zeroGradient;
  }
  walls
  {
    type empty;
  }
} 	// ************************************************************************* //

