// -*- C++ -*-
// File generated by PyFoam - sorry for the ugliness

FoamFile
{
 version 2.0;
 format ascii;
 class volVectorField;
 object U;
}

dimensions [ 0 1 -1 0 0 0 0 ];

internalField uniform (0 0 0);

boundaryField
{
  vessel
  {
    type noSlip;
  }
  ICA
  {
    type fixedValue;
    value uniform (-0.00045767783115359086 -0.00018605352058127705 0.0017308711940378053);
  }
  MCA
  {
    type inletOutlet;
    inletValue uniform (0 0 0);
    value uniform (0 0 0);
  }
  ACA
  {
    type inletOutlet;
    inletValue uniform (0 0 0);
    value uniform (0 0 0);
  }
  walls
  {
    type empty;
  }
} 	// ************************************************************************* //

