// -*- C++ -*-
// File generated by PyFoam - sorry for the ugliness

FoamFile
{
 version 2.0;
 format ascii;
 class volVectorField;
 object U;
}

dimensions [ 0 1 -1 0 0 0 0 ];

internalField uniform (0 0 0);

boundaryField
{
  boundary_0
  {
    type fixedValue;
    value uniform (-0.0010630210901620407 0.1338238418560037 0.2964964406819435);
  }
  boundary_1
  {
    inletValue uniform (0 0 0);
    type inletOutlet;
    value uniform (0 0 0);
  }
  boundary_2
  {
    inletValue uniform (0 0 0);
    type inletOutlet;
    value uniform (0 0 0);
  }
  boundary_3
  {
    inletValue uniform (0 0 0);
    type inletOutlet;
    value uniform (0 0 0);
  }
  boundary_4
  {
    inletValue uniform (0 0 0);
    type inletOutlet;
    value uniform (0 0 0);
  }
  boundary_5
  {
    inletValue uniform (0 0 0);
    type inletOutlet;
    value uniform (0 0 0);
  }
  vessel
  {
    type noSlip;
  }
  walls
  {
    type empty;
  }
} 	// ************************************************************************* //

