// -*- C++ -*-
// File generated by PyFoam - sorry for the ugliness

FoamFile
{
 version 2.0;
 format ascii;
 class dictionary;
 object blockMeshDict;
}

convertToMeters 0.001;

vertices
  (
    (-18.5 -41 -50.5)
    (-2.5 -41 -50.5)
    (-2.5 -21.4 -50.5)
    (-18.5 -21.4 -50.5)
    (-18.5 -41 -29)
    (-2.5 -41 -29)
    (-2.5 -21.4 -29)
    (-18.5 -21.4 -29)
  );
  
edges
  (
  );

blocks
  (
    hex

    (
      0
      1
      2
      3
      4
      5
      6
      7
    )
    (10 10 10)
    simpleGrading
    (1 1 1)
  ); 	// vertex numbers
//number of cells in each direction
// cell expansion ratios

boundary
  (
    frontAndBack

    {
      type slip;
      faces
        (

          (
            3
            7
            6
            2
          )

          (
            1
            5
            4
            0
          )
        ); 	// patch name
// patch type
// block face in this patch

    }
    leftWall

    {
      type slip;
      faces
        (

          (
            0
            4
            7
            3
          )
        );

    }
    rightWall

    {
      type slip;
      faces
        (

          (
            2
            6
            5
            1
          )
        );

    }
    upperWall

    {
      type slip;
      faces
        (

          (
            0
            3
            2
            1
          )
        );

    }
    lowerWall

    {
      type slip;
      faces
        (

          (
            4
            5
            6
            7
          )
        );

    }
  );

