// -*- C++ -*-
// File generated by PyFoam - sorry for the ugliness

FoamFile
{
 version 2.0;
 format ascii;
 class dictionary;
 object blockMeshDict;
}

convertToMeters 0.001;

xmin -19.932899475097656;

xmax -1.9841899871826172;

ymin -41.89979934692383;

ymax -20.030099868774414;

zmin -52.27470016479492;

zmax -27.70330047607422;

vertices
  (

    (
      $xmin
      $ymin
      $zmin
    )

    (
      $xmax
      $ymin
      $zmin
    )

    (
      $xmax
      $ymax
      $zmin
    )

    (
      $xmin
      $ymax
      $zmin
    )

    (
      $xmin
      $ymin
      $zmax
    )

    (
      $xmax
      $ymin
      $zmax
    )

    (
      $xmax
      $ymax
      $zmax
    )

    (
      $xmin
      $ymax
      $zmax
    )
  );

edges
  (
  );

blocks
  (
    hex

    (
      0
      1
      2
      3
      4
      5
      6
      7
    )
    (10 10 10)
    simpleGrading
    (1 1 1)
  ); 	// vertex numbers//number of cells in each direction// cell expansion ratios

boundary
  (
    walls

    {
      type empty;
      faces
        (

          (
            3
            7
            6
            2
          )

          (
            0
            4
            7
            3
          )

          (
            2
            6
            5
            1
          )

          (
            1
            5
            4
            0
          )

          (
            0
            3
            2
            1
          )

          (
            4
            5
            6
            7
          )
        );

    }
  ); 	//     frontAndBack//     {//       type slip;//       faces//         (//           (//             3//             7//             6//             2//           )//           (//             1//             5//             4//             0//           )//         ); 	// patch name// // patch type// // block face in this patch//     }//     leftWall//     {//       type slip;//       faces//         (//           (//             0//             4//             7//             3//           )//         );//     }//     rightWall//     {//       type slip;//       faces//         (//           (//             2//             6//             5//             1//           )//         );//     }//     upperWall//     {//       type slip;//       faces//         (//           (//             0//             3//             2//             1//           )//         );//     }//     lowerWall//     {//       type slip;//       faces//         (//           (//             4//             5//             6//             7//           )//         );//     }

