/*--------------------------------*- C++ -*----------------------------------*\
| =========                 |                                                 |
| \\      /  F ield         | OpenFOAM: The Open Source CFD Toolbox           |
|  \\    /   O peration     | Version:  2.3.0                                 |
|   \\  /    A nd           | Web:      www.OpenFOAM.org                      |
|    \\/     M anipulation  |                                                 |
\*---------------------------------------------------------------------------*/
FoamFile
{
    version     2.0;
    format      ascii;
    class       dictionary;
    object      blockMeshDict;
}
// * * * * * * * * * * * * * * * * * * * * * * * * * * * * * * * * * * * * * //

convertToMeters 0.001;
// convertToMeters 1;

vertices
(
	(-18.5 -41 -50.5)
	(-2.5 -41 -50.5)
	(-2.5 -21.4 -50.5)
	(-18.5 -21.4 -50.5)
	(-18.5 -41 -29)
	(-2.5 -41 -29)
	(-2.5 -21.4 -29)
	(-18.5 -21.4 -29)
);

edges
(
);

blocks
(
	hex (0 1 2 3 4 5 6 7) // vertex numbers
	(10 10 10)	//number of cells in each direction
	simpleGrading (1 1 1) // cell expansion ratios
);

boundary
(
	frontAndBack	// patch name
	{
		type slip;	// patch type
		faces
		(
			(3 7 6 2)	// block face in this patch
			(1 5 4 0)
		);
	}

	leftWall
	{
		type slip;
		faces
		(
			(0 4 7 3)
		);
	}

	rightWall
	{
		type slip;
		faces
		(
			(2 6 5 1)
		);
	}
	
	topWall
	{
		type slip;
		faces
		(
			(0 3 2 1)
		);
	}

	bottomWall
	{
		type slip;
		faces
		(
			(4 5 6 7)
		);
	}
);