// -*- C++ -*-
// File generated by PyFoam - sorry for the ugliness

FoamFile
{
 version 2.0;
 format ascii;
 class dictionary;
 location "system";
 object decomposeParDict;
}

numberOfSubdomains 2;

method hierarchical; 	//method          scotch;

simpleCoeffs
{
  delta 0.001;
  n (2 1 1);
}

hierarchicalCoeffs
{
  delta 0.001;
  n (2 1 1);
  order xyz;
}

manualCoeffs
{
  dataFile "";
}

distributed no;
roots
  (
  ); 	// ************************************************************************* //

