/*--------------------------------*- C++ -*----------------------------------*\
  =========                 |
  \\      /  F ield         | OpenFOAM: The Open Source CFD Toolbox
   \\    /   O peration     | Website:  https://openfoam.org
    \\  /    A nd           | Version:  7
     \\/     M anipulation  |
\*---------------------------------------------------------------------------*/
FoamFile
{
    version     2.0;
    format      ascii;
    class       dictionary;
    location    "system";
    object      fvSolution;
}
// * * * * * * * * * * * * * * * * * * * * * * * * * * * * * * * * * * * * * //

solvers
{
    p
    {
        // solver          PCG;
        solver          GAMG;
        // preconditioner  DIC;
        tolerance       1e-06;
        // tolerance       1e-07;
        relTol          0.05;
        relTol          0.01;
        smoother GaussSeidel ;
        // nPreSweeps 0;
        // nPostSweeps 2;
        // cacheAgglomeration on ;
        // agglomerator faceAreaPair ;
        // nCellsInCoarsestLevel 10;
        // mergeLevels 1;
    }

    pFinal
    {
        $p;
        tolerance       1e-06;
        relTol          0;
    }

    // U
    // {
    //     solver          smoothSolver;
    //     smoother        symGaussSeidel;
    //     // smoother GaussSeidel ;
    //     tolerance       1e-05;
    //     // tolerance       1e-08;
    //     relTol          0;
    //     // relTol 0.1;
    //     // nSweeps 1;
    // }

    "(U|k|epsilon|omega|R|nuTilda)"
    {
        solver          smoothSolver;
        smoother        GaussSeidel;
        tolerance       1e-05;
        relTol          0;
    }
}

PISO
{
    nCorrectors     2;
    nNonOrthogonalCorrectors 0;
    pRefCell        0;
    pRefValue       0;
}

// SIMPLE
// {
//     nNonOrthogonalCorrectors 2;
// }

// potentialFlow
// {
//     nNonOrthogonalCorrectors 10;
// }

// relaxationFactors
// {
//     fields
//     {
//         p 0.3;
//     }
//     equations
//     {
//         U 0.7;
//     }
// }

// cache
// {
//     grad (U) ;
// }

// ************************************************************************* //
